18

C 	 -1.196883 	 -1.470585 	 0.069499
C 	 -2.412083 	 -0.872071 	 0.041164
C 	 -2.400324 	 0.532244 	 -0.024885
C 	 -1.275655 	 1.339552 	 -0.254234
C 	 -0.068895 	 0.729697 	 -0.172697
C 	 1.108705 	 1.457306 	 -0.282811
C 	 2.374905 	 0.848875 	 0.023570
C 	 2.506007 	 -0.574563 	 0.283150
C 	 1.313033 	 -1.302458 	 0.238041
C 	 0.027234 	 -0.679548 	 0.103012
H 	 -0.976488 	 -2.596049 	 0.030221
H 	 -3.321513 	 -1.394272 	 -0.040256
H 	 -3.334210 	 1.143782 	 -0.099985
H 	 -1.251730 	 2.384826 	 -0.630457
H 	 1.143039 	 2.459819 	 -0.693710
H 	 3.249728 	 1.399428 	 0.103449
H 	 3.428790 	 -1.091251 	 0.620766
H 	 1.347936 	 -2.406965 	 0.426862
