15

C 	 2.446524 	 -0.303707 	 0.149843
C 	 0.995878 	 -0.019408 	 0.138064
C 	 0.424666 	 1.232520 	 0.056540
C 	 -1.016497 	 1.278485 	 -0.106074
C 	 -1.907938 	 0.199340 	 -0.011401
C 	 -1.336753 	 -1.136240 	 -0.111463
C 	 0.089981 	 -1.193622 	 -0.097125
H 	 2.912571 	 0.516297 	 -0.390556
H 	 2.774109 	 -0.495781 	 1.153554
H 	 2.631138 	 -1.244932 	 -0.288781
H 	 1.041102 	 2.170813 	 0.151757
H 	 -1.462247 	 2.192611 	 -0.410580
H 	 -2.903788 	 0.497039 	 -0.236419
H 	 -1.916422 	 -2.070661 	 0.037897
H 	 0.547754 	 -2.247785 	 -0.235230
